Version 4.1
SHEET 1 2696 720
WIRE 352 -32 16 -32
WIRE 640 -32 448 -32
WIRE 880 -32 640 -32
WIRE 1088 -32 880 -32
WIRE 1712 -32 1376 -32
WIRE 2000 -32 1808 -32
WIRE 2240 -32 2000 -32
WIRE 2448 -32 2240 -32
WIRE 352 -16 352 -32
WIRE 448 -16 448 -32
WIRE 1712 -16 1712 -32
WIRE 1808 -16 1808 -32
WIRE 880 0 880 -32
WIRE 2240 0 2240 -32
WIRE 640 96 640 -32
WIRE 2000 96 2000 -32
WIRE 1088 112 1088 -32
WIRE 2448 112 2448 -32
WIRE 16 128 16 -32
WIRE 1376 128 1376 -32
WIRE 752 144 704 144
WIRE 880 144 880 80
WIRE 880 144 832 144
WIRE 2112 144 2064 144
WIRE 2240 144 2240 80
WIRE 2240 144 2192 144
WIRE 400 192 400 48
WIRE 640 192 400 192
WIRE 1760 192 1760 48
WIRE 2000 192 1760 192
WIRE 400 256 400 192
WIRE 1760 256 1760 192
WIRE 880 320 880 144
WIRE 2240 320 2240 144
WIRE 16 416 16 208
WIRE 400 416 400 336
WIRE 400 416 16 416
WIRE 880 416 880 384
WIRE 880 416 400 416
WIRE 1088 416 1088 192
WIRE 1088 416 880 416
WIRE 1376 416 1376 208
WIRE 1760 416 1760 336
WIRE 1760 416 1376 416
WIRE 2240 416 2240 384
WIRE 2240 416 1760 416
WIRE 2448 416 2448 192
WIRE 2448 416 2240 416
WIRE 400 448 400 416
WIRE 1760 448 1760 416
FLAG 400 448 0
FLAG 1760 448 0
SYMBOL res 0 112 R0
SYMATTR InstName R1
SYMATTR Value 1k
SYMBOL pnp2 352 48 R270
SYMATTR InstName Q2
SYMATTR Value FMMT718
SYMBOL res 384 240 R0
SYMATTR InstName R2
SYMATTR Value 6.8k
SYMBOL pnp2 704 192 R180
SYMATTR InstName Q1
SYMATTR Value FMMT718
SYMBOL res 848 128 R90
WINDOW 0 0 56 VBottom 2
WINDOW 3 32 56 VTop 2
SYMATTR InstName R3
SYMATTR Value 6.8k
SYMBOL res 864 -16 R0
SYMATTR InstName R4
SYMATTR Value 2.7k
SYMBOL voltage 1088 96 R0
WINDOW 123 0 0 Left 0
WINDOW 39 0 0 Left 0
SYMATTR InstName V1
SYMATTR Value SINE(5 1 1k)
SYMBOL DI_BZX84C5V6 880 352 R270
SYMATTR InstName U1
SYMBOL res 1360 112 R0
SYMATTR InstName R5
SYMATTR Value 1k
SYMBOL pnp2 1712 48 R270
SYMATTR InstName Q3
SYMATTR Value FMMT718
SYMBOL res 1744 240 R0
SYMATTR InstName R6
SYMATTR Value 6.8k
SYMBOL pnp2 2064 192 R180
SYMATTR InstName Q4
SYMATTR Value FMMT718
SYMBOL res 2208 128 R90
WINDOW 0 0 56 VBottom 2
WINDOW 3 32 56 VTop 2
SYMATTR InstName R7
SYMATTR Value 6.8k
SYMBOL res 2224 -16 R0
SYMATTR InstName R8
SYMATTR Value 2.7k
SYMBOL voltage 2448 96 R0
WINDOW 123 0 0 Left 0
WINDOW 39 0 0 Left 0
SYMATTR InstName V2
SYMATTR Value SINE(13.5 13.5 1k)
SYMBOL zener 2256 384 R180
WINDOW 0 24 64 Left 2
WINDOW 3 24 0 Left 2
SYMATTR InstName D2
SYMATTR Value KDZV20B
TEXT -208 -248 Left 2 !.inc FMMT718Q.txt
TEXT -208 -288 Left 2 !.tran 5m
TEXT -208 -208 Left 2 !.inc BZX84C5V6.txt
TEXT -200 -160 Left 2 !.inc kdzv20b.lib
TEXT 40 -104 Left 2 ;Clipping at 5.75V
TEXT 248 -336 Left 5 ;Over Voltage Protection
TEXT 1400 -104 Left 2 ;Clipping at 21.6V
