*DIODES_INC_DSS5540X_SPICE_MODEL
*DATE=23Jan2023
*VERSION=1.0
*ORIGIN=DT
*SIMULATOR=SIMETRIX
*
.MODEL DSS5540X  PNP (IS=3.003p NF=1.00 BF=433 VAF=114
+ IKF=12.74 ISE=0.3p NE=2.00 BR=47.00 NR=1.00 NK=0.9 ISC=21p NC=1.9
+ VAR=24.0 IKR=7.50 RE=17.4m RB=61.5m RC=6.15m RCO=0.002
+ XTB=1.5 CJE=543p VJE=1.10 MJE=0.500 CJC=139p VJC=0.300
+ MJC=0.300 TF=5.42n TR=11.1n EG=1.12
+ TRE1=0.001 TRB1=0.003 TRC1=0.001 GAMMA=1n )
*
*$
*
