Version 4
SHEET 1 3372 1348
WIRE 1744 352 1712 352
WIRE 1776 352 1744 352
WIRE 1904 352 1840 352
WIRE 1952 352 1904 352
WIRE 2256 352 1952 352
WIRE 1408 368 1360 368
WIRE 1456 368 1408 368
WIRE 1360 384 1360 368
WIRE 1952 400 1952 352
WIRE 2256 400 2256 352
WIRE 1360 480 1360 464
WIRE 1712 528 1712 352
WIRE 1792 528 1712 528
WIRE 1952 544 1952 480
WIRE 1952 544 1856 544
WIRE 2000 544 1952 544
WIRE 2096 544 2000 544
WIRE 1408 560 1360 560
WIRE 1456 560 1408 560
WIRE 1792 560 1712 560
WIRE 2256 560 2256 480
WIRE 2256 560 2160 560
WIRE 2336 560 2256 560
WIRE 2384 560 2336 560
WIRE 1360 576 1360 560
WIRE 2096 576 2016 576
WIRE 1712 608 1712 560
WIRE 2016 624 2016 576
WIRE 1360 672 1360 656
WIRE 1920 944 1872 944
WIRE 1968 944 1920 944
WIRE 2064 1008 2032 1008
WIRE 2112 1008 2064 1008
WIRE 1968 1136 1968 944
WIRE 1968 1136 1808 1136
WIRE 1680 1152 1648 1152
WIRE 1744 1152 1680 1152
WIRE 2032 1168 2032 1008
WIRE 2032 1168 1808 1168
WIRE 2176 1168 2032 1168
WIRE 1648 1184 1648 1152
WIRE 1648 1328 1648 1264
FLAG 1920 944 VIN_L
FLAG 2064 1008 VIN_H
FLAG 1680 1152 HV_P
FLAG 1408 368 VIN_L
FLAG 1408 560 VIN_H
FLAG 1360 672 0
FLAG 1360 480 0
FLAG 1712 608 0
FLAG 1648 1328 0
FLAG 1904 352 VIN_H
FLAG 1744 352 VIN_L
FLAG 2016 624 0
FLAG 2000 544 nHV
FLAG 2336 560 HV
SYMBOL AutoGenerated\\BSS138_ZTX 1824 544 M0
SYMATTR InstName U1
SYMBOL AutoGenerated\\BSS84 1776 1152 R0
SYMATTR InstName U2
SYMBOL res 1968 384 M0
SYMATTR InstName R3
SYMATTR Value 10k
SYMBOL voltage 1360 560 R0
WINDOW 123 0 0 Left 0
WINDOW 39 0 0 Left 0
SYMATTR InstName V1
SYMATTR Value 5
SYMBOL voltage 1360 368 R0
WINDOW 123 0 0 Left 0
WINDOW 39 0 0 Left 0
SYMATTR InstName V2
SYMATTR Value PULSE(0 3.3 0 0 0 0.25 0.5)
SYMBOL res 1632 1168 R0
SYMATTR InstName R1
SYMATTR Value 10k
SYMBOL AutoGenerated\\BSS138_ZTX 2128 560 M0
SYMATTR InstName U3
SYMBOL res 2272 384 M0
SYMATTR InstName R2
SYMATTR Value 10k
TEXT 1390 728 Left 2 !.tran 2
TEXT 1720 1144 Left 2 ;D
TEXT 1816 1128 Left 2 ;G
TEXT 1816 1160 Left 2 ;S
TEXT 1880 536 Right 2 ;D
TEXT 1784 520 Right 2 ;G
TEXT 1784 552 Right 2 ;S
TEXT 2184 552 Right 2 ;D
TEXT 2088 536 Right 2 ;G
TEXT 2088 568 Right 2 ;S
TEXT 1536 264 Left 5 ;Level Shift Logic from 3.3V to 5V
TEXT 1912 664 Left 2 ;nHV is inverse\nlogic level
TEXT 2272 664 Left 2 ;HV follows\nlogic level
TEXT 1888 864 Left 3 ;PMOS Fail
