Version 4.1
SHEET 1 2052 680
WIRE 592 -608 368 -608
WIRE 368 -496 368 -528
WIRE 288 -336 96 -336
WIRE 1696 -336 1472 -336
WIRE 96 -304 96 -336
WIRE 288 -304 288 -336
WIRE 592 -256 592 -608
WIRE 464 -240 384 -240
WIRE 1472 -224 1472 -256
WIRE 464 -208 432 -208
WIRE 288 -192 288 -224
WIRE 384 -192 384 -240
WIRE 384 -192 288 -192
WIRE 656 -192 592 -192
WIRE 288 -160 288 -192
WIRE 656 -128 656 -192
WIRE 720 -128 656 -128
WIRE 880 -128 720 -128
WIRE 944 -128 880 -128
WIRE 1392 -64 1200 -64
WIRE 288 -32 288 -80
WIRE 432 -32 432 -208
WIRE 720 -32 720 -128
WIRE 720 -32 432 -32
WIRE 1200 -32 1200 -64
WIRE 1392 -32 1392 -64
WIRE 1696 16 1696 -336
WIRE 1568 32 1488 32
WIRE 1568 64 1536 64
WIRE 1392 80 1392 48
WIRE 1488 80 1488 32
WIRE 1488 80 1392 80
WIRE 1760 80 1696 80
WIRE 1392 112 1392 80
WIRE 1760 144 1760 80
WIRE 1824 144 1760 144
WIRE 2048 144 1824 144
WIRE 1392 240 1392 192
WIRE 1536 240 1536 64
WIRE 1824 240 1824 144
WIRE 1824 240 1536 240
FLAG 368 -496 0
FLAG 288 -32 0
FLAG 96 -224 0
FLAG 880 -128 VOUT
FLAG 592 -224 0
FLAG 1472 -224 0
FLAG 1392 240 0
FLAG 1200 48 0
FLAG 1696 48 0
SYMBOL res 272 -176 R0
SYMATTR InstName R1
SYMATTR Value 100k
SYMBOL res 272 -320 R0
SYMATTR InstName R2
SYMATTR Value 525k
SYMBOL voltage 368 -624 R0
WINDOW 123 0 0 Left 0
WINDOW 39 0 0 Left 0
SYMATTR InstName V1
SYMATTR Value 5
SYMBOL voltage 96 -320 R0
WINDOW 123 0 0 Left 0
WINDOW 39 0 0 Left 0
SYMATTR InstName V2
SYMATTR Value 20
SYMBOL OPAx333 528 -224 R0
SYMATTR InstName U1
SYMBOL res 1376 96 R0
SYMATTR InstName R3
SYMATTR Value 320k
SYMBOL res 1376 -48 R0
SYMATTR InstName R4
SYMATTR Value 180k
SYMBOL voltage 1472 -352 R0
WINDOW 123 0 0 Left 0
WINDOW 39 0 0 Left 0
SYMATTR InstName V3
SYMATTR Value 5
SYMBOL voltage 1200 -48 R0
WINDOW 123 0 0 Left 0
WINDOW 39 0 0 Left 0
SYMATTR InstName V4
SYMATTR Value 5
SYMBOL OPAx333 1632 48 R0
SYMATTR InstName U2
TEXT 648 -688 Left 2 !.tran .1m
TEXT 720 -424 Left 2 ;important to find a rail-to-rail input/output to get up to 3.2V on Vs = 5V
